/*--------------------------------*- C++ -*----------------------------------*\
| =========                 |                                                 |
| \\      /  F ield         | OpenFOAM: The Open Source CFD Toolbox           |
|  \\    /   O peration     | Version:  3.0.1                                 |
|   \\  /    A nd           | Web:      www.OpenFOAM.org                      |
|    \\/     M anipulation  |                                                 |
\*---------------------------------------------------------------------------*/
FoamFile
{
    version     2.0;
    format      ascii;
    class       dictionary;
    location    "system";
    object      funkySetFieldsDict;
}
// * * * * * * * * * * * * * * * * * * * * * * * * * * * * * * * * * * * * * //

expressions
(

alphawater
    {
    field alpha.phase1;
    expression "1";
    condition "pos().z<=0";
    keepPatches true;
    }

alphawater1{
    field alpha.phase1;
    expression "1";
    condition "pow(pow(pos().x-0.00000899675,2)+pow(pos().y-0.0000100715,2)+pow(pos().z-0.00000899369,2),0.5)<=0.000009||pow(pow(pos().x-0.0000124931,2)+pow(pos().y-0.0000338298,2)+pow(pos().z-0.0000124865,2),0.5)<=0.0000125||pow(pow(pos().x-0.0000269977,2)+pow(pos().y-0.00000900041,2)+pow(pos().z-0.00000899668,2),0.5)<=0.000009||pow(pow(pos().x-0.0000320206,2)+pow(pos().y-0.0000242899,2)+pow(pos().z-0.00002482,2),0.5)<=0.0000125||pow(pow(pos().x-0.0000169248,2)+pow(pos().y-0.00000899312,2)+pow(pos().z-0.0000251104,2),0.5)<=0.000009||pow(pow(pos().x-0.00000899576,2)+pow(pos().y-0.0000239376,2)+pow(pos().z-0.0000312417,2),0.5)<=0.000009||pow(pow(pos().x-0.0000462206,2)+pow(pos().y-0.0000211905,2)+pow(pos().z-0.00000899022,2),0.5)<=0.000009||pow(pow(pos().x-0.0000594541,2)+pow(pos().y-0.00000899677,2)+pow(pos().z-0.00000899635,2),0.5)<=0.000009||pow(pow(pos().x-0.0000774497,2)+pow(pos().y-0.0000089934,2)+pow(pos().z-0.00000898912,2),0.5)<=0.000009";
    keepPatches true;
    }
alphawater2{
    field alpha.phase1;
    expression "1";
    condition "pow(pow(pos().x-0.000069147,2)+pow(pos().y-0.0000124931,2)+pow(pos().z-0.0000284969,2),0.5)<=0.0000125||pow(pow(pos().x-0.0000641888,2)+pow(pos().y-0.0000359178,2)+pow(pos().z-0.0000149863,2),0.5)<=0.000015||pow(pow(pos().x-0.0000848926,2)+pow(pos().y-0.0000253742,2)+pow(pos().z-0.00000899136,2),0.5)<=0.000009||pow(pow(pos().x-0.0000482794,2)+pow(pos().y-0.0000357657,2)+pow(pos().z-0.000032949,2),0.5)<=0.000009||pow(pow(pos().x-0.0000472082,2)+pow(pos().y-0.00000899698,2)+pow(pos().z-0.0000221874,2),0.5)<=0.000009||pow(pow(pos().x-0.0000954431,2)+pow(pos().y-0.00000899853,2)+pow(pos().z-0.00000899257,2),0.5)<=0.000009||pow(pow(pos().x-0.0000964027,2)+pow(pos().y-0.00000899943,2)+pow(pos().z-0.0000269605,2),0.5)<=0.000009||pow(pow(pos().x-0.00011636,2)+pow(pos().y-0.000012495,2)+pow(pos().z-0.0000124901,2),0.5)<=0.0000125||pow(pow(pos().x-0.0000992783,2)+pow(pos().y-0.0000332727,2)+pow(pos().z-0.0000264897,2),0.5)<=0.000015";
    keepPatches true;
    }
alphawater3{
    field alpha.phase1;
    expression "1";
    condition "pow(pow(pos().x-0.000114823,2)+pow(pos().y-0.0000126184,2)+pow(pos().z-0.0000374349,2),0.5)<=0.0000125||pow(pow(pos().x-0.000116872,2)+pow(pos().y-0.0000336978,2)+pow(pos().z-0.00000899579,2),0.5)<=0.000009||pow(pow(pos().x-0.000137787,2)+pow(pos().y-0.0000372283,2)+pow(pos().z-0.0000124878,2),0.5)<=0.0000125||pow(pow(pos().x-0.000122776,2)+pow(pos().y-0.0000285876,2)+pow(pos().z-0.0000252141,2),0.5)<=0.000009||pow(pow(pos().x-0.000119222,2)+pow(pos().y-0.0000422795,2)+pow(pos().z-0.0000363405,2),0.5)<=0.000009||pow(pow(pos().x-0.00013881,2)+pow(pos().y-0.000019566,2)+pow(pos().z-0.0000363299,2),0.5)<=0.0000125||pow(pow(pos().x-0.000141354,2)+pow(pos().y-0.0000124931,2)+pow(pos().z-0.0000124917,2),0.5)<=0.0000125||pow(pow(pos().x-0.000158314,2)+pow(pos().y-0.0000302567,2)+pow(pos().z-0.0000249246,2),0.5)<=0.0000125||pow(pow(pos().x-0.000162272,2)+pow(pos().y-0.00000899839,2)+pow(pos().z-0.00000899601,2),0.5)<=0.000009";
    keepPatches true;
    }
alphawater4{
    field alpha.phase1;
    expression "1";
    condition "pow(pow(pos().x-0.000155652,2)+pow(pos().y-0.00000899691,2)+pow(pos().z-0.0000281577,2),0.5)<=0.000009||pow(pow(pos().x-0.000172489,2)+pow(pos().y-0.0000141075,2)+pow(pos().z-0.0000243889,2),0.5)<=0.000009||pow(pow(pos().x-0.000179165,2)+pow(pos().y-0.000029801,2)+pow(pos().z-0.0000301405,2),0.5)<=0.000009||pow(pow(pos().x-0.000171679,2)+pow(pos().y-0.0000248114,2)+pow(pos().z-0.0000089946,2),0.5)<=0.000009||pow(pow(pos().x-0.000180265,2)+pow(pos().y-0.00000899459,2)+pow(pos().z-0.0000089914,2),0.5)<=0.000009||pow(pow(pos().x-0.000175172,2)+pow(pos().y-0.00000899866,2)+pow(pos().z-0.0000414346,2),0.5)<=0.000009||pow(pow(pos().x-0.000190285,2)+pow(pos().y-0.0000349951,2)+pow(pos().z-0.000012493,2),0.5)<=0.0000125||pow(pow(pos().x-0.000201177,2)+pow(pos().y-0.0000124971,2)+pow(pos().z-0.0000124921,2),0.5)<=0.0000125||pow(pow(pos().x-0.000188884,2)+pow(pos().y-0.00000899824,2)+pow(pos().z-0.0000297748,2),0.5)<=0.000009";
    keepPatches true;
    }
alphawater5{
    field alpha.phase1;
    expression "1";
    condition "pow(pow(pos().x-0.000214982,2)+pow(pos().y-0.0000388379,2)+pow(pos().z-0.0000124924,2),0.5)<=0.0000125||pow(pow(pos().x-0.000204057,2)+pow(pos().y-0.0000277755,2)+pow(pos().z-0.0000273381,2),0.5)<=0.000009||pow(pow(pos().x-0.000211577,2)+pow(pos().y-0.00000899871,2)+pow(pos().z-0.0000309774,2),0.5)<=0.000009||pow(pow(pos().x-0.000228439,2)+pow(pos().y-0.0000149933,2)+pow(pos().z-0.0000149893,2),0.5)<=0.000015||pow(pow(pos().x-0.000251622,2)+pow(pos().y-0.0000149961,2)+pow(pos().z-0.0000340144,2),0.5)<=0.000015||pow(pow(pos().x-0.000250888,2)+pow(pos().y-0.00000899681,2)+pow(pos().z-0.00000899587,2),0.5)<=0.000009||pow(pow(pos().x-0.000266615,2)+pow(pos().y-0.0000232272,2)+pow(pos().z-0.0000124907,2),0.5)<=0.0000125||pow(pow(pos().x-0.000275785,2)+pow(pos().y-0.00000899845,2)+pow(pos().z-0.0000257416,2),0.5)<=0.000009||pow(pow(pos().x-0.000272718,2)+pow(pos().y-0.0000407978,2)+pow(pos().z-0.0000294466,2),0.5)<=0.0000125";
    keepPatches true;
    }
alphawater6{
    field alpha.phase1;
    expression "1";
    condition "pow(pow(pos().x-0.000282377,2)+pow(pos().y-0.00000899954,2)+pow(pos().z-0.00000899542,2),0.5)<=0.000009||pow(pow(pos().x-0.00028948,2)+pow(pos().y-0.0000333163,2)+pow(pos().z-0.0000124886,2),0.5)<=0.0000125||pow(pow(pos().x-0.0003033,2)+pow(pos().y-0.0000124923,2)+pow(pos().z-0.0000124874,2),0.5)<=0.0000125||pow(pow(pos().x-0.000307522,2)+pow(pos().y-0.000030291,2)+pow(pos().z-0.0000237728,2),0.5)<=0.000009||pow(pow(pos().x-0.000292816,2)+pow(pos().y-0.0000332342,2)+pow(pos().z-0.0000337241,2),0.5)<=0.000009||pow(pow(pos().x-0.00029764,2)+pow(pos().y-0.0000124969,2)+pow(pos().z-0.0000368298,2),0.5)<=0.0000125||pow(pow(pos().x-0.000324329,2)+pow(pos().y-0.00000900142,2)+pow(pos().z-0.00000899668,2),0.5)<=0.000009||pow(pow(pos().x-0.00031875,2)+pow(pos().y-0.0000270304,2)+pow(pos().z-0.0000089967,2),0.5)<=0.000009||pow(pow(pos().x-0.000321421,2)+pow(pos().y-0.0000149385,2)+pow(pos().z-0.0000295262,2),0.5)<=0.0000125";
    keepPatches true;
    }
alphawater7{
    field alpha.phase1;
    expression "1";
    condition "pow(pow(pos().x-0.000342405,2)+pow(pos().y-0.00000899518,2)+pow(pos().z-0.0000089939,2),0.5)<=0.000009||pow(pow(pos().x-0.000336029,2)+pow(pos().y-0.0000355443,2)+pow(pos().z-0.0000282746,2),0.5)<=0.0000125||pow(pow(pos().x-0.000336723,2)+pow(pos().y-0.0000260682,2)+pow(pos().z-0.0000089941,2),0.5)<=0.000009||pow(pow(pos().x-0.000360403,2)+pow(pos().y-0.00000899476,2)+pow(pos().z-0.00000899215,2),0.5)<=0.000009||pow(pow(pos().x-0.000341913,2)+pow(pos().y-0.0000089911,2)+pow(pos().z-0.0000269819,2),0.5)<=0.000009||pow(pow(pos().x-0.000359157,2)+pow(pos().y-0.0000217895,2)+pow(pos().z-0.0000262148,2),0.5)<=0.0000125||pow(pow(pos().x-0.000353243,2)+pow(pos().y-0.0000332101,2)+pow(pos().z-0.00000899313,2),0.5)<=0.000009||pow(pow(pos().x-0.000366042,2)+pow(pos().y-0.0000420205,2)+pow(pos().z-0.0000239456,2),0.5)<=0.000009||pow(pow(pos().x-0.000381239,2)+pow(pos().y-0.0000129595,2)+pow(pos().z-0.0000124922,2),0.5)<=0.0000125";
    keepPatches true;
    }
alphawater8{
    field alpha.phase1;
    expression "1";
    condition "pow(pow(pos().x-0.000371172,2)+pow(pos().y-0.0000316303,2)+pow(pos().z-0.00000899637,2),0.5)<=0.000009||pow(pow(pos().x-0.000398054,2)+pow(pos().y-0.000026119,2)+pow(pos().z-0.00000899649,2),0.5)<=0.000009||pow(pow(pos().x-0.000409461,2)+pow(pos().y-0.0000333771,2)+pow(pos().z-0.000028825,2),0.5)<=0.000015||pow(pow(pos().x-0.000398932,2)+pow(pos().y-0.00000899811,2)+pow(pos().z-0.000024038,2),0.5)<=0.000009||pow(pow(pos().x-0.00041672,2)+pow(pos().y-0.0000124929,2)+pow(pos().z-0.0000124895,2),0.5)<=0.0000125||pow(pow(pos().x-0.000381364,2)+pow(pos().y-0.0000315473,2)+pow(pos().z-0.0000391543,2),0.5)<=0.000015||pow(pow(pos().x-0.000375158,2)+pow(pos().y-0.00000899737,2)+pow(pos().z-0.000032726,2),0.5)<=0.000009||pow(pow(pos().x-0.000423758,2)+pow(pos().y-0.0000325052,2)+pow(pos().z-0.0000089967,2),0.5)<=0.000009||pow(pow(pos().x-0.000443855,2)+pow(pos().y-0.0000161354,2)+pow(pos().z-0.0000149896,2),0.5)<=0.000015";
    keepPatches true;
    }
alphawater9{
    field alpha.phase1;
    expression "1";
    condition "pow(pow(pos().x-0.000457269,2)+pow(pos().y-0.0000403948,2)+pow(pos().z-0.000022375,2),0.5)<=0.0000125||pow(pow(pos().x-0.000440494,2)+pow(pos().y-0.0000391274,2)+pow(pos().z-0.00000899307,2),0.5)<=0.000009||pow(pow(pos().x-0.000465959,2)+pow(pos().y-0.00000899137,2)+pow(pos().z-0.00000898723,2),0.5)<=0.000009||pow(pow(pos().x-0.000486637,2)+pow(pos().y-0.0000136998,2)+pow(pos().z-0.0000124913,2),0.5)<=0.0000125||pow(pow(pos().x-0.000501198,2)+pow(pos().y-0.000030984,2)+pow(pos().z-0.00000898799,2),0.5)<=0.000009||pow(pow(pos().x-0.000468832,2)+pow(pos().y-0.0000124956,2)+pow(pos().z-0.0000299909,2),0.5)<=0.0000125||pow(pow(pos().x-0.000467351,2)+pow(pos().y-0.0000269308,2)+pow(pos().z-0.00000899414,2),0.5)<=0.000009||pow(pow(pos().x-0.000483587,2)+pow(pos().y-0.0000346895,2)+pow(pos().z-0.00000899196,2),0.5)<=0.000009||pow(pow(pos().x-0.000476796,2)+pow(pos().y-0.0000319355,2)+pow(pos().z-0.0000254277,2),0.5)<=0.000009";
    keepPatches true;
    }
alphawater10{
    field alpha.phase1;
    expression "1";
    condition "pow(pow(pos().x-0.000505008,2)+pow(pos().y-0.0000311644,2)+pow(pos().z-0.0000357046,2),0.5)<=0.000018||pow(pow(pos().x-0.000489796,2)+pow(pos().y-0.00000899771,2)+pow(pos().z-0.000033226,2),0.5)<=0.000009||pow(pow(pos().x-0.000511601,2)+pow(pos().y-0.0000124993,2)+pow(pos().z-0.0000124931,2),0.5)<=0.0000125||pow(pow(pos().x-0.000536595,2)+pow(pos().y-0.0000124964,2)+pow(pos().z-0.0000124902,2),0.5)<=0.0000125||pow(pow(pos().x-0.000539598,2)+pow(pos().y-0.0000284307,2)+pow(pos().z-0.0000266042,2),0.5)<=0.000009||pow(pow(pos().x-0.000524513,2)+pow(pos().y-0.0000343788,2)+pow(pos().z-0.0000124892,2),0.5)<=0.0000125||pow(pow(pos().x-0.0005241,2)+pow(pos().y-0.00000899839,2)+pow(pos().z-0.0000296279,2),0.5)<=0.000009||pow(pow(pos().x-0.000548276,2)+pow(pos().y-0.0000421246,2)+pow(pos().z-0.0000124869,2),0.5)<=0.0000125||pow(pow(pos().x-0.000541769,2)+pow(pos().y-0.0000089967,2)+pow(pos().z-0.000033057,2),0.5)<=0.000009";
    keepPatches true;
    }
alphawater11{
    field alpha.phase1;
    expression "1";
    condition "pow(pow(pos().x-0.000566081,2)+pow(pos().y-0.0000179925,2)+pow(pos().z-0.0000179872,2),0.5)<=0.000018||pow(pow(pos().x-0.000595563,2)+pow(pos().y-0.0000124958,2)+pow(pos().z-0.0000124881,2),0.5)<=0.0000125||pow(pow(pos().x-0.000587315,2)+pow(pos().y-0.0000089986,2)+pow(pos().z-0.0000320278,2),0.5)<=0.000009||pow(pow(pos().x-0.000576404,2)+pow(pos().y-0.0000412945,2)+pow(pos().z-0.0000389378,2),0.5)<=0.000015||pow(pow(pos().x-0.000599838,2)+pow(pos().y-0.0000292713,2)+pow(pos().z-0.000030516,2),0.5)<=0.0000125||pow(pow(pos().x-0.000620556,2)+pow(pos().y-0.0000124979,2)+pow(pos().z-0.0000124922,2),0.5)<=0.0000125||pow(pow(pos().x-0.000620692,2)+pow(pos().y-0.0000240559,2)+pow(pos().z-0.0000306154,2),0.5)<=0.000009||pow(pow(pos().x-0.000608054,2)+pow(pos().y-0.00000899711,2)+pow(pos().z-0.0000296251,2),0.5)<=0.000009||pow(pow(pos().x-0.000651363,2)+pow(pos().y-0.0000328881,2)+pow(pos().z-0.00000899038,2),0.5)<=0.000009";
    keepPatches true;
    }
alphawater12{
    field alpha.phase1;
    expression "1";
    condition "pow(pow(pos().x-0.000629281,2)+pow(pos().y-0.0000401114,2)+pow(pos().z-0.0000149889,2),0.5)<=0.000015||pow(pow(pos().x-0.000608083,2)+pow(pos().y-0.0000301606,2)+pow(pos().z-0.00000899668,2),0.5)<=0.000009||pow(pow(pos().x-0.000645548,2)+pow(pos().y-0.0000124945,2)+pow(pos().z-0.0000124902,2),0.5)<=0.0000125||pow(pow(pos().x-0.000650388,2)+pow(pos().y-0.0000379792,2)+pow(pos().z-0.0000262211,2),0.5)<=0.000009||pow(pow(pos().x-0.000642648,2)+pow(pos().y-0.0000191971,2)+pow(pos().z-0.000038993,2),0.5)<=0.000015||pow(pow(pos().x-0.000666464,2)+pow(pos().y-0.00000899475,2)+pow(pos().z-0.00000899359,2),0.5)<=0.000009||pow(pow(pos().x-0.000687379,2)+pow(pos().y-0.0000125007,2)+pow(pos().z-0.0000124906,2),0.5)<=0.0000125||pow(pow(pos().x-0.00068875,2)+pow(pos().y-0.0000374706,2)+pow(pos().z-0.0000124913,2),0.5)<=0.0000125||pow(pow(pos().x-0.00066795,2)+pow(pos().y-0.0000266566,2)+pow(pos().z-0.0000211544,2),0.5)<=0.0000125";
    keepPatches true;
    }
alphawater13{
    field alpha.phase1;
    expression "1";
    condition "pow(pow(pos().x-0.000681376,2)+pow(pos().y-0.00000899903,2)+pow(pos().z-0.0000328323,2),0.5)<=0.000009||pow(pow(pos().x-0.000663381,2)+pow(pos().y-0.00000899466,2)+pow(pos().z-0.0000325188,2),0.5)<=0.000009||pow(pow(pos().x-0.000705168,2)+pow(pos().y-0.0000240517,2)+pow(pos().z-0.00000899318,2),0.5)<=0.000009||pow(pow(pos().x-0.00070399,2)+pow(pos().y-0.0000124993,2)+pow(pos().z-0.0000311631,2),0.5)<=0.0000125||pow(pow(pos().x-0.000715011,2)+pow(pos().y-0.00000899306,2)+pow(pos().z-0.00000899644,2),0.5)<=0.000009||pow(pow(pos().x-0.000724993,2)+pow(pos().y-0.0000315842,2)+pow(pos().z-0.0000124939,2),0.5)<=0.0000125||pow(pow(pos().x-0.000733005,2)+pow(pos().y-0.00000899594,2)+pow(pos().z-0.00000899121,2),0.5)<=0.000009||pow(pow(pos().x-0.000707028,2)+pow(pos().y-0.0000336102,2)+pow(pos().z-0.0000241264,2),0.5)<=0.000009||pow(pow(pos().x-0.000728901,2)+pow(pos().y-0.0000137328,2)+pow(pos().z-0.0000295493,2),0.5)<=0.0000125";
    keepPatches true;
    }
alphawater14{
    field alpha.phase1;
    expression "1";
    condition "pow(pow(pos().x-0.000743985,2)+pow(pos().y-0.0000410234,2)+pow(pos().z-0.0000089962,2),0.5)<=0.000009||pow(pow(pos().x-0.000756788,2)+pow(pos().y-0.000018059,2)+pow(pos().z-0.0000179866,2),0.5)<=0.000018||pow(pow(pos().x-0.000780571,2)+pow(pos().y-0.00000899639,2)+pow(pos().z-0.00000899285,2),0.5)<=0.000009||pow(pow(pos().x-0.000784537,2)+pow(pos().y-0.0000386227,2)+pow(pos().z-0.0000149891,2),0.5)<=0.000015||pow(pow(pos().x-0.000783016,2)+pow(pos().y-0.00000899816,2)+pow(pos().z-0.0000268214,2),0.5)<=0.000009||pow(pow(pos().x-0.000777757,2)+pow(pos().y-0.0000262156,2)+pow(pos().z-0.0000385704,2),0.5)<=0.0000125||pow(pow(pos().x-0.000803017,2)+pow(pos().y-0.0000149932,2)+pow(pos().z-0.0000149912,2),0.5)<=0.000015||pow(pow(pos().x-0.000810516,2)+pow(pos().y-0.0000374811,2)+pow(pos().z-0.0000186839,2),0.5)<=0.000009||pow(pow(pos().x-0.000829755,2)+pow(pos().y-0.0000301598,2)+pow(pos().z-0.0000124923,2),0.5)<=0.0000125";
    keepPatches true;
    }
alphawater15{
    field alpha.phase1;
    expression "1";
    condition "pow(pow(pos().x-0.000825528,2)+pow(pos().y-0.00000899435,2)+pow(pos().z-0.00000899199,2),0.5)<=0.000009||pow(pow(pos().x-0.000802285,2)+pow(pos().y-0.0000308921,2)+pow(pos().z-0.0000374135,2),0.5)<=0.0000125||pow(pow(pos().x-0.000826039,2)+pow(pos().y-0.0000126226,2)+pow(pos().z-0.00003017,2),0.5)<=0.0000125||pow(pow(pos().x-0.000843578,2)+pow(pos().y-0.00000904109,2)+pow(pos().z-0.00000899668,2),0.5)<=0.000009||pow(pow(pos().x-0.00084244,2)+pow(pos().y-0.0000312255,2)+pow(pos().z-0.000029812,2),0.5)<=0.000009||pow(pow(pos().x-0.000876068,2)+pow(pos().y-0.0000266274,2)+pow(pos().z-0.0000089907,2),0.5)<=0.000009||pow(pow(pos().x-0.000879614,2)+pow(pos().y-0.00000899011,2)+pow(pos().z-0.00000899207,2),0.5)<=0.000009||pow(pow(pos().x-0.000855008,2)+pow(pos().y-0.0000291389,2)+pow(pos().z-0.0000124957,2),0.5)<=0.0000125||pow(pow(pos().x-0.000861618,2)+pow(pos().y-0.0000089922,2)+pow(pos().z-0.00000899339,2),0.5)<=0.000009";
    keepPatches true;
    }
alphawater16{
    field alpha.phase1;
    expression "1";
    condition "pow(pow(pos().x-0.00087062,2)+pow(pos().y-0.0000140301,2)+pow(pos().z-0.0000278514,2),0.5)<=0.0000125||pow(pow(pos().x-0.000856949,2)+pow(pos().y-0.0000261554,2)+pow(pos().z-0.0000391731,2),0.5)<=0.000009||pow(pow(pos().x-0.000899987,2)+pow(pos().y-0.0000148653,2)+pow(pos().z-0.0000124947,2),0.5)<=0.0000125||pow(pow(pos().x-0.000920366,2)+pow(pos().y-0.00000899795,2)+pow(pos().z-0.00000899455,2),0.5)<=0.000009||pow(pow(pos().x-0.000932136,2)+pow(pos().y-0.0000258802,2)+pow(pos().z-0.00000899288,2),0.5)<=0.000009||pow(pow(pos().x-0.000914662,2)+pow(pos().y-0.0000301749,2)+pow(pos().z-0.00000899342,2),0.5)<=0.000009||pow(pow(pos().x-0.000915396,2)+pow(pos().y-0.0000089992,2)+pow(pos().z-0.0000262907,2),0.5)<=0.000009||pow(pow(pos().x-0.000933946,2)+pow(pos().y-0.0000297828,2)+pow(pos().z-0.0000300515,2),0.5)<=0.0000125||pow(pow(pos().x-0.000908964,2)+pow(pos().y-0.0000306025,2)+pow(pos().z-0.0000297156,2),0.5)<=0.0000125";
    keepPatches true;
    }
alphawater17{
    field alpha.phase1;
    expression "1";
    condition "pow(pow(pos().x-0.00093836,2)+pow(pos().y-0.00000899573,2)+pow(pos().z-0.00000899567,2),0.5)<=0.000009||pow(pow(pos().x-0.000959276,2)+pow(pos().y-0.0000124963,2)+pow(pos().z-0.0000124947,2),0.5)<=0.0000125||pow(pow(pos().x-0.000977339,2)+pow(pos().y-0.0000330728,2)+pow(pos().z-0.0000149924,2),0.5)<=0.000015||pow(pow(pos().x-0.000980195,2)+pow(pos().y-0.00000899867,2)+pow(pos().z-0.00000899579,2),0.5)<=0.000009||pow(pow(pos().x-0.000950232,2)+pow(pos().y-0.0000369409,2)+pow(pos().z-0.0000124917,2),0.5)<=0.0000125||pow(pow(pos().x-0.000989196,2)+pow(pos().y-0.0000141203,2)+pow(pos().z-0.000023716,2),0.5)<=0.000009||pow(pow(pos().x-0.000998192,2)+pow(pos().y-0.00000899791,2)+pow(pos().z-0.00000899508,2),0.5)<=0.000009||pow(pow(pos().x-0.00100472,2)+pow(pos().y-0.0000329201,2)+pow(pos().z-0.0000124939,2),0.5)<=0.0000125||pow(pow(pos().x-0.00101911,2)+pow(pos().y-0.0000124924,2)+pow(pos().z-0.0000124945,2),0.5)<=0.0000125";
    keepPatches true;
    }
alphawater18{
    field alpha.phase1;
    expression "1";
    condition "pow(pow(pos().x-0.00102592,2)+pow(pos().y-0.0000325781,2)+pow(pos().z-0.00000899207,2),0.5)<=0.000009||pow(pow(pos().x-0.00102292,2)+pow(pos().y-0.0000414235,2)+pow(pos().z-0.0000243739,2),0.5)<=0.000009||pow(pow(pos().x-0.00104003,2)+pow(pos().y-0.00000899816,2)+pow(pos().z-0.00000899554,2),0.5)<=0.000009||pow(pow(pos().x-0.00103636,2)+pow(pos().y-0.0000245519,2)+pow(pos().z-0.0000259851,2),0.5)<=0.0000125||pow(pow(pos().x-0.00105119,2)+pow(pos().y-0.0000089983,2)+pow(pos().z-0.0000256425,2),0.5)<=0.000009||pow(pow(pos().x-0.00105802,2)+pow(pos().y-0.00000899797,2)+pow(pos().z-0.00000899258,2),0.5)<=0.000009||pow(pow(pos().x-0.0010604,2)+pow(pos().y-0.0000321114,2)+pow(pos().z-0.0000149922,2),0.5)<=0.000015||pow(pow(pos().x-0.00107492,2)+pow(pos().y-0.00000899834,2)+pow(pos().z-0.0000151724,2),0.5)<=0.000009||pow(pow(pos().x-0.00108225,2)+pow(pos().y-0.0000242283,2)+pow(pos().z-0.00000899343,2),0.5)<=0.000009";
    keepPatches true;
    }
alphawater19{
    field alpha.phase1;
    expression "1";
    condition "pow(pow(pos().x-0.00109182,2)+pow(pos().y-0.0000089926,2)+pow(pos().z-0.00000899434,2),0.5)<=0.000009||pow(pow(pos().x-0.00110038,2)+pow(pos().y-0.000024823,2)+pow(pos().z-0.00000899523,2),0.5)<=0.000009||pow(pow(pos().x-0.00110981,2)+pow(pos().y-0.0000089969,2)+pow(pos().z-0.0000089947,2),0.5)<=0.000009||pow(pow(pos().x-0.00110104,2)+pow(pos().y-0.0000262007,2)+pow(pos().z-0.0000304375,2),0.5)<=0.0000125||pow(pow(pos().x-0.00111203,2)+pow(pos().y-0.0000385406,2)+pow(pos().z-0.00000899637,2),0.5)<=0.000009||pow(pow(pos().x-0.00108871,2)+pow(pos().y-0.00000899415,2)+pow(pos().z-0.0000267228,2),0.5)<=0.000009||pow(pow(pos().x-0.0011199,2)+pow(pos().y-0.0000124957,2)+pow(pos().z-0.0000394374,2),0.5)<=0.0000125||pow(pow(pos().x-0.00107991,2)+pow(pos().y-0.0000246898,2)+pow(pos().z-0.0000268311,2),0.5)<=0.000009||pow(pow(pos().x-0.00112252,2)+pow(pos().y-0.0000389202,2)+pow(pos().z-0.0000291155,2),0.5)<=0.0000125";
    keepPatches true;
    }
alphawater20{
    field alpha.phase1;
    expression "1";
    condition "pow(pow(pos().x-0.00113225,2)+pow(pos().y-0.0000149983,2)+pow(pos().z-0.0000149941,2),0.5)<=0.000015||pow(pow(pos().x-0.00113002,2)+pow(pos().y-0.0000381234,2)+pow(pos().z-0.00000899119,2),0.5)<=0.000009||pow(pow(pos().x-0.00115593,2)+pow(pos().y-0.0000358299,2)+pow(pos().z-0.0000281593,2),0.5)<=0.0000125||pow(pow(pos().x-0.00115224,2)+pow(pos().y-0.0000268238,2)+pow(pos().z-0.00000899382,2),0.5)<=0.000009||pow(pow(pos().x-0.00115468,2)+pow(pos().y-0.00000899355,2)+pow(pos().z-0.00000898889,2),0.5)<=0.000009||pow(pow(pos().x-0.00115468,2)+pow(pos().y-0.00000899658,2)+pow(pos().z-0.0000269799,2),0.5)<=0.000009||pow(pow(pos().x-0.00116496,2)+pow(pos().y-0.000039558,2)+pow(pos().z-0.00000899578,2),0.5)<=0.000009||pow(pow(pos().x-0.0011411,2)+pow(pos().y-0.00000899794,2)+pow(pos().z-0.0000387862,2),0.5)<=0.000009||pow(pow(pos().x-0.00117848,2)+pow(pos().y-0.0000179969,2)+pow(pos().z-0.0000179878,2),0.5)<=0.000018";
    keepPatches true;
    }
alphawater21{
    field alpha.phase1;
    expression "1";
    condition "pow(pow(pos().x-0.0012059,2)+pow(pos().y-0.0000124975,2)+pow(pos().z-0.0000301634,2),0.5)<=0.0000125||pow(pow(pos().x-0.00120589,2)+pow(pos().y-0.0000301741,2)+pow(pos().z-0.0000124905,2),0.5)<=0.0000125||pow(pow(pos().x-0.00120235,2)+pow(pos().y-0.00000912113,2)+pow(pos().z-0.0000089967,2),0.5)<=0.000009||pow(pow(pos().x-0.00119427,2)+pow(pos().y-0.0000367284,2)+pow(pos().z-0.0000293447,2),0.5)<=0.000009||pow(pow(pos().x-0.00122357,2)+pow(pos().y-0.0000124965,2)+pow(pos().z-0.000012489,2),0.5)<=0.0000125||pow(pow(pos().x-0.00123441,2)+pow(pos().y-0.00000899843,2)+pow(pos().z-0.0000307158,2),0.5)<=0.000009||pow(pow(pos().x-0.00122684,2)+pow(pos().y-0.0000334527,2)+pow(pos().z-0.00000899245,2),0.5)<=0.000009||pow(pow(pos().x-0.0012522,2)+pow(pos().y-0.00000899676,2)+pow(pos().z-0.0000334033,2),0.5)<=0.000009||pow(pow(pos().x-0.0012361,2)+pow(pos().y-0.0000256301,2)+pow(pos().z-0.0000239952,2),0.5)<=0.000009";
    keepPatches true;
    }
alphawater22{
    field alpha.phase1;
    expression "1";
    condition "pow(pow(pos().x-0.00124864,2)+pow(pos().y-0.0000124929,2)+pow(pos().z-0.000012493,2),0.5)<=0.0000125||pow(pow(pos().x-0.00125476,2)+pow(pos().y-0.0000298618,2)+pow(pos().z-0.0000235907,2),0.5)<=0.000009||pow(pow(pos().x-0.00124483,2)+pow(pos().y-0.0000333552,2)+pow(pos().z-0.00000899304,2),0.5)<=0.000009||pow(pow(pos().x-0.00121941,2)+pow(pos().y-0.0000298897,2)+pow(pos().z-0.0000291996,2),0.5)<=0.000009||pow(pow(pos().x-0.00124635,2)+pow(pos().y-0.0000251433,2)+pow(pos().z-0.0000387863,2),0.5)<=0.000009||pow(pow(pos().x-0.00126469,2)+pow(pos().y-0.0000263604,2)+pow(pos().z-0.00000899497,2),0.5)<=0.000009||pow(pow(pos().x-0.00127431,2)+pow(pos().y-0.0000179315,2)+pow(pos().z-0.0000307464,2),0.5)<=0.000015||pow(pow(pos().x-0.00126956,2)+pow(pos().y-0.00000899647,2)+pow(pos().z-0.0000089923,2),0.5)<=0.000009||pow(pow(pos().x-0.00129414,2)+pow(pos().y-0.0000124973,2)+pow(pos().z-0.0000124933,2),0.5)<=0.0000125";
    keepPatches true;
    }
alphawater23{
    field alpha.phase1;
    expression "1";
    condition "pow(pow(pos().x-0.00128338,2)+pow(pos().y-0.0000363766,2)+pow(pos().z-0.0000124894,2),0.5)<=0.0000125||pow(pow(pos().x-0.00130397,2)+pow(pos().y-0.0000312938,2)+pow(pos().z-0.00000899069,2),0.5)<=0.000009||pow(pow(pos().x-0.00131186,2)+pow(pos().y-0.0000132978,2)+pow(pos().z-0.0000254387,2),0.5)<=0.000009||pow(pow(pos().x-0.00130179,2)+pow(pos().y-0.0000338159,2)+pow(pos().z-0.0000327512,2),0.5)<=0.000015||pow(pow(pos().x-0.0012964,2)+pow(pos().y-0.00000899725,2)+pow(pos().z-0.0000335849,2),0.5)<=0.000009||pow(pow(pos().x-0.00131775,2)+pow(pos().y-0.00000899443,2)+pow(pos().z-0.00000899179,2),0.5)<=0.000009||pow(pow(pos().x-0.00132717,2)+pow(pos().y-0.0000302277,2)+pow(pos().z-0.0000149948,2),0.5)<=0.000015||pow(pow(pos().x-0.00134808,2)+pow(pos().y-0.0000403368,2)+pow(pos().z-0.00000899352,2),0.5)<=0.000009||pow(pow(pos().x-0.00133657,2)+pow(pos().y-0.00000899033,2)+pow(pos().z-0.00000899165,2),0.5)<=0.000009";
    keepPatches true;
    }
alphawater24{
    field alpha.phase1;
    expression "1";
    condition "pow(pow(pos().x-0.00135235,2)+pow(pos().y-0.0000124896,2)+pow(pos().z-0.0000231636,2),0.5)<=0.0000125||pow(pow(pos().x-0.00134636,2)+pow(pos().y-0.0000318936,2)+pow(pos().z-0.0000377343,2),0.5)<=0.0000125||pow(pow(pos().x-0.00136953,2)+pow(pos().y-0.00000899994,2)+pow(pos().z-0.00000899668,2),0.5)<=0.000009||pow(pow(pos().x-0.00136661,2)+pow(pos().y-0.0000300116,2)+pow(pos().z-0.0000124873,2),0.5)<=0.0000125||pow(pow(pos().x-0.001391,2)+pow(pos().y-0.00000899693,2)+pow(pos().z-0.0000089916,2),0.5)<=0.000009||pow(pow(pos().x-0.00138139,2)+pow(pos().y-0.0000149961,2)+pow(pos().z-0.0000301392,2),0.5)<=0.000015||pow(pow(pos().x-0.00139081,2)+pow(pos().y-0.0000271893,2)+pow(pos().z-0.00000899668,2),0.5)<=0.000009||pow(pow(pos().x-0.001391,2)+pow(pos().y-0.0000366737,2)+pow(pos().z-0.0000338297,2),0.5)<=0.000009||pow(pow(pos().x-0.0000374103,2)+pow(pos().y-0.0000453544,2)+pow(pos().z-0.0000124904,2),0.5)<=0.0000125";
    keepPatches true;
    }
alphawater25{
    field alpha.phase1;
    expression "1";
    condition "pow(pow(pos().x-0.00000899506,2)+pow(pos().y-0.0000442276,2)+pow(pos().z-0.000030971,2),0.5)<=0.000009||pow(pow(pos().x-0.0000149984,2)+pow(pos().y-0.0000610938,2)+pow(pos().z-0.0000149895,2),0.5)<=0.000015||pow(pow(pos().x-0.0000124951,2)+pow(pos().y-0.0000883598,2)+pow(pos().z-0.0000124911,2),0.5)<=0.0000125||pow(pow(pos().x-0.0000399989,2)+pow(pos().y-0.0000722708,2)+pow(pos().z-0.0000124937,2),0.5)<=0.0000125||pow(pow(pos().x-0.0000125007,2)+pow(pos().y-0.000079029,2)+pow(pos().z-0.0000356786,2),0.5)<=0.0000125||pow(pow(pos().x-0.0000302669,2)+pow(pos().y-0.0000871938,2)+pow(pos().z-0.0000245227,2),0.5)<=0.000009||pow(pow(pos().x-0.0000307019,2)+pow(pos().y-0.000051124,2)+pow(pos().z-0.0000385202,2),0.5)<=0.000015||pow(pow(pos().x-0.0000420418,2)+pow(pos().y-0.0000761711,2)+pow(pos().z-0.0000387294,2),0.5)<=0.0000125||pow(pow(pos().x-0.0000562689,2)+pow(pos().y-0.0000572213,2)+pow(pos().z-0.0000304531,2),0.5)<=0.0000125";
    keepPatches true;
    }
alphawater26{
    field alpha.phase1;
    expression "1";
    condition "pow(pow(pos().x-0.0000549721,2)+pow(pos().y-0.0000572481,2)+pow(pos().z-0.00000899472,2),0.5)<=0.000009||pow(pow(pos().x-0.0000613744,2)+pow(pos().y-0.0000806907,2)+pow(pos().z-0.0000235466,2),0.5)<=0.0000125||pow(pow(pos().x-0.0000698672,2)+pow(pos().y-0.0000673465,2)+pow(pos().z-0.00000899368,2),0.5)<=0.000009||pow(pow(pos().x-0.0000855411,2)+pow(pos().y-0.0000530595,2)+pow(pos().z-0.0000124922,2),0.5)<=0.0000125||pow(pow(pos().x-0.0000874651,2)+pow(pos().y-0.0000825196,2)+pow(pos().z-0.0000149898,2),0.5)<=0.000015||pow(pow(pos().x-0.0000820305,2)+pow(pos().y-0.0000636191,2)+pow(pos().z-0.0000376334,2),0.5)<=0.000015||pow(pow(pos().x-0.000106175,2)+pow(pos().y-0.0000481668,2)+pow(pos().z-0.00000899014,2),0.5)<=0.000009||pow(pow(pos().x-0.000103802,2)+pow(pos().y-0.000066005,2)+pow(pos().z-0.00000899284,2),0.5)<=0.000009||pow(pow(pos().x-0.000106371,2)+pow(pos().y-0.0000759633,2)+pow(pos().z-0.0000338451,2),0.5)<=0.0000125";
    keepPatches true;
    }
alphawater27{
    field alpha.phase1;
    expression "1";
    condition "pow(pow(pos().x-0.00012391,2)+pow(pos().y-0.0000595998,2)+pow(pos().z-0.0000204068,2),0.5)<=0.000015||pow(pow(pos().x-0.000115367,2)+pow(pos().y-0.0000853455,2)+pow(pos().z-0.0000124933,2),0.5)<=0.0000125||pow(pow(pos().x-0.000141207,2)+pow(pos().y-0.0000449789,2)+pow(pos().z-0.0000360014,2),0.5)<=0.0000125||pow(pow(pos().x-0.000144883,2)+pow(pos().y-0.0000572168,2)+pow(pos().z-0.00000899535,2),0.5)<=0.000009||pow(pow(pos().x-0.000141606,2)+pow(pos().y-0.0000790899,2)+pow(pos().z-0.0000124903,2),0.5)<=0.0000125||pow(pow(pos().x-0.000159503,2)+pow(pos().y-0.000067709,2)+pow(pos().z-0.0000089929,2),0.5)<=0.000009||pow(pow(pos().x-0.000169478,2)+pow(pos().y-0.0000488443,2)+pow(pos().z-0.0000124914,2),0.5)<=0.0000125||pow(pow(pos().x-0.000177479,2)+pow(pos().y-0.000068486,2)+pow(pos().z-0.00000899317,2),0.5)<=0.000009||pow(pow(pos().x-0.000182748,2)+pow(pos().y-0.0000821443,2)+pow(pos().z-0.0000312402,2),0.5)<=0.000009";
    keepPatches true;
    }
alphawater28{
    field alpha.phase1;
    expression "1";
    condition "pow(pow(pos().x-0.00015782,2)+pow(pos().y-0.000062597,2)+pow(pos().z-0.0000298019,2),0.5)<=0.0000125||pow(pow(pos().x-0.000150761,2)+pow(pos().y-0.0000855007,2)+pow(pos().z-0.000036898,2),0.5)<=0.0000125||pow(pow(pos().x-0.00018513,2)+pow(pos().y-0.0000610787,2)+pow(pos().z-0.0000276654,2),0.5)<=0.0000125||pow(pow(pos().x-0.000194381,2)+pow(pos().y-0.0000558062,2)+pow(pos().z-0.00000899364,2),0.5)<=0.000009||pow(pow(pos().x-0.000193258,2)+pow(pos().y-0.0000826528,2)+pow(pos().z-0.0000124941,2),0.5)<=0.0000125||pow(pow(pos().x-0.000215152,2)+pow(pos().y-0.0000662169,2)+pow(pos().z-0.0000149926,2),0.5)<=0.000015||pow(pow(pos().x-0.000221233,2)+pow(pos().y-0.000048887,2)+pow(pos().z-0.0000304389,2),0.5)<=0.000009||pow(pow(pos().x-0.000220338,2)+pow(pos().y-0.0000863091,2)+pow(pos().z-0.0000330331,2),0.5)<=0.0000125||pow(pow(pos().x-0.000234307,2)+pow(pos().y-0.0000890845,2)+pow(pos().z-0.0000124928,2),0.5)<=0.0000125";
    keepPatches true;
    }
alphawater29{
    field alpha.phase1;
    expression "1";