/*--------------------------------*- C++ -*----------------------------------*\
| =========                 |                                                 |
| \\      /  F ield         | OpenFOAM: The Open Source CFD Toolbox           |
|  \\    /   O peration     | Version:  3.0.1                                 |
|   \\  /    A nd           | Web:      www.OpenFOAM.org                      |
|    \\/     M anipulation  |                                                 |
\*---------------------------------------------------------------------------*/
FoamFile
{
    version     2.0;
    format      ascii;
    class       dictionary;
    location    "system";
    object      funkySetFieldsDict;
}
// * * * * * * * * * * * * * * * * * * * * * * * * * * * * * * * * * * * * * //

expressions
(
alphawater
    {
    field alpha.phase1;
    expression "1";
    condition "pos().z<=0";
    keepPatches true;
    }


alphawater1
    {
    field alpha.phase1;
    expression "1";
condition "pow(pow(pos().x-0.000224208,2)+pow(pos().y-3.15041e-05,2)+pow(pos().z-3.13164e-05,2),0.5)<=9e-06||pow(pow(pos().x-0.000530201,2)+pow(pos().y-2.18569e-05,2)+pow(pos().z-3.98514e-05,2),0.5)<=9e-06||pow(pow(pos().x-0.000801414,2)+pow(pos().y-9.82342e-06,2)+pow(pos().z-3.85078e-05,2),0.5)<=9e-06||pow(pow(pos().x-0.000955264,2)+pow(pos().y-1.85547e-05,2)+pow(pos().z-3.64742e-05,2),0.5)<=1.25e-05||pow(pow(pos().x-0.000972918,2)+pow(pos().y-9.00444e-06,2)+pow(pos().z-2.83521e-05,2),0.5)<=9e-06||pow(pow(pos().x-0.000990118,2)+pow(pos().y-2.68971e-05,2)+pow(pos().z-3.58899e-05,2),0.5)<=9e-06||pow(pow(pos().x-0.000990779,2)+pow(pos().y-9.41369e-06,2)+pow(pos().z-4.10562e-05,2),0.5)<=9e-06||pow(pow(pos().x-0.000209576,2)+pow(pos().y-5.94738e-05,2)+pow(pos().z-9.85604e-06,2),0.5)<=9e-06||pow(pow(pos().x-0.000373948,2)+pow(pos().y-6.2668e-05,2)+pow(pos().z-2.22833e-05,2),0.5)<=1.25e-05";
    keepPatches true;
    }
alphawater2
    {
    field alpha.phase1;
    expression "1";
condition "pow(pow(pos().x-0.000463082,2)+pow(pos().y-5.3222e-05,2)+pow(pos().z-9.07663e-06,2),0.5)<=9e-06||pow(pow(pos().x-0.000492173,2)+pow(pos().y-5.11098e-05,2)+pow(pos().z-8.99667e-06,2),0.5)<=9e-06||pow(pow(pos().x-0.000562615,2)+pow(pos().y-6.69968e-05,2)+pow(pos().z-4.02142e-05,2),0.5)<=1.5e-05||pow(pow(pos().x-0.000734715,2)+pow(pos().y-6.50445e-05,2)+pow(pos().z-3.2246e-05,2),0.5)<=1.25e-05||pow(pow(pos().x-0.000800866,2)+pow(pos().y-5.41627e-05,2)+pow(pos().z-2.99298e-05,2),0.5)<=9e-06||pow(pow(pos().x-0.000782964,2)+pow(pos().y-6.34124e-05,2)+pow(pos().z-4.00095e-05,2),0.5)<=9e-06||pow(pow(pos().x-0.000946742,2)+pow(pos().y-0.00010848,2)+pow(pos().z-4.33945e-05,2),0.5)<=9e-06||pow(pow(pos().x-0.000983166,2)+pow(pos().y-5.46471e-05,2)+pow(pos().z-3.69664e-05,2),0.5)<=1.25e-05||pow(pow(pos().x-0.000368411,2)+pow(pos().y-0.000164321,2)+pow(pos().z-2.87938e-05,2),0.5)<=9e-06";
    keepPatches true;
    }
alphawater3
    {
    field alpha.phase1;
    expression "1";
condition "pow(pow(pos().x-0.000856086,2)+pow(pos().y-0.000109572,2)+pow(pos().z-3.84351e-05,2),0.5)<=1.25e-05||pow(pow(pos().x-0.000207585,2)+pow(pos().y-0.000147068,2)+pow(pos().z-1.12873e-05,2),0.5)<=9e-06||pow(pow(pos().x-0.000208543,2)+pow(pos().y-0.000183253,2)+pow(pos().z-1.2878e-05,2),0.5)<=1.25e-05||pow(pow(pos().x-0.000257217,2)+pow(pos().y-0.000176474,2)+pow(pos().z-1.31691e-05,2),0.5)<=9e-06||pow(pow(pos().x-0.000263628,2)+pow(pos().y-0.000150461,2)+pow(pos().z-1.92796e-05,2),0.5)<=9e-06||pow(pow(pos().x-0.000286958,2)+pow(pos().y-0.000144481,2)+pow(pos().z-2.38809e-05,2),0.5)<=1.25e-05||pow(pow(pos().x-0.000331231,2)+pow(pos().y-0.000147326,2)+pow(pos().z-2.26325e-05,2),0.5)<=1.25e-05||pow(pow(pos().x-0.000358525,2)+pow(pos().y-0.000147188,2)+pow(pos().z-1.84032e-05,2),0.5)<=1.25e-05||pow(pow(pos().x-0.000380482,2)+pow(pos().y-0.00014204,2)+pow(pos().z-1.10252e-05,2),0.5)<=9e-06";
    keepPatches true;
    }
alphawater4
    {
    field alpha.phase1;
    expression "1";
condition "pow(pow(pos().x-0.000423066,2)+pow(pos().y-0.000144488,2)+pow(pos().z-2.69163e-05,2),0.5)<=9e-06||pow(pow(pos().x-0.000441736,2)+pow(pos().y-0.00015307,2)+pow(pos().z-2.0599e-05,2),0.5)<=1.25e-05||pow(pow(pos().x-0.000493731,2)+pow(pos().y-0.00014332,2)+pow(pos().z-3.48242e-05,2),0.5)<=1.5e-05||pow(pow(pos().x-0.000720448,2)+pow(pos().y-0.000144187,2)+pow(pos().z-2.45537e-05,2),0.5)<=9e-06||pow(pow(pos().x-0.000759135,2)+pow(pos().y-0.000140488,2)+pow(pos().z-2.09647e-05,2),0.5)<=1.25e-05||pow(pow(pos().x-0.000829936,2)+pow(pos().y-0.000152292,2)+pow(pos().z-2.61913e-05,2),0.5)<=9e-06||pow(pow(pos().x-0.000867855,2)+pow(pos().y-0.000183253,2)+pow(pos().z-1.64535e-05,2),0.5)<=9e-06||pow(pow(pos().x-7.25251e-05,2)+pow(pos().y-0.000245942,2)+pow(pos().z-5.00454e-05,2),0.5)<=1.25e-05||pow(pow(pos().x-0.000151997,2)+pow(pos().y-0.000181871,2)+pow(pos().z-2.13403e-05,2),0.5)<=1.25e-05";
    keepPatches true;
    }
alphawater5
    {
    field alpha.phase1;
    expression "1";
condition "pow(pow(pos().x-0.000237836,2)+pow(pos().y-0.00016926,2)+pow(pos().z-6.9929e-05,2),0.5)<=1.25e-05||pow(pow(pos().x-0.000253427,2)+pow(pos().y-0.000177775,2)+pow(pos().z-3.93216e-05,2),0.5)<=1.5e-05||pow(pow(pos().x-0.000234334,2)+pow(pos().y-0.000187116,2)+pow(pos().z-1.65371e-05,2),0.5)<=9e-06||pow(pow(pos().x-0.000308824,2)+pow(pos().y-0.000194042,2)+pow(pos().z-2.49463e-05,2),0.5)<=1.25e-05||pow(pow(pos().x-0.000327955,2)+pow(pos().y-0.000186713,2)+pow(pos().z-1.67377e-05,2),0.5)<=9e-06||pow(pow(pos().x-0.000453626,2)+pow(pos().y-0.000193919,2)+pow(pos().z-3.54243e-05,2),0.5)<=1.25e-05||pow(pow(pos().x-0.000416005,2)+pow(pos().y-0.000212433,2)+pow(pos().z-3.79285e-05,2),0.5)<=9e-06||pow(pow(pos().x-0.000477722,2)+pow(pos().y-0.000187827,2)+pow(pos().z-3.27806e-05,2),0.5)<=1.25e-05||pow(pow(pos().x-0.00062342,2)+pow(pos().y-0.000186587,2)+pow(pos().z-2.55827e-05,2),0.5)<=9e-06";
    keepPatches true;
    }
alphawater6
    {
    field alpha.phase1;
    expression "1";
condition "pow(pow(pos().x-0.000873507,2)+pow(pos().y-0.000193751,2)+pow(pos().z-2.98304e-05,2),0.5)<=9e-06||pow(pow(pos().x-0.000959141,2)+pow(pos().y-0.000199659,2)+pow(pos().z-1.91398e-05,2),0.5)<=9e-06||pow(pow(pos().x-0.000907146,2)+pow(pos().y-0.000153884,2)+pow(pos().z-3.80221e-05,2),0.5)<=1.5e-05||pow(pow(pos().x-9.02103e-05,2)+pow(pos().y-0.000243685,2)+pow(pos().z-2.44936e-05,2),0.5)<=1.25e-05||pow(pow(pos().x-6.12791e-05,2)+pow(pos().y-0.000261668,2)+pow(pos().z-4.03582e-05,2),0.5)<=9e-06||pow(pow(pos().x-0.000114573,2)+pow(pos().y-0.000249196,2)+pow(pos().z-2.54849e-05,2),0.5)<=1.25e-05||pow(pow(pos().x-0.000129293,2)+pow(pos().y-0.000266037,2)+pow(pos().z-1.22796e-05,2),0.5)<=9e-06||pow(pow(pos().x-0.000222512,2)+pow(pos().y-0.000271021,2)+pow(pos().z-1.44378e-05,2),0.5)<=1.25e-05||pow(pow(pos().x-0.000245493,2)+pow(pos().y-0.000267205,2)+pow(pos().z-2.46811e-05,2),0.5)<=1.25e-05";
    keepPatches true;
    }
alphawater7
    {
    field alpha.phase1;
    expression "1";
condition "pow(pow(pos().x-0.000311512,2)+pow(pos().y-0.000267012,2)+pow(pos().z-9.93012e-06,2),0.5)<=9e-06||pow(pow(pos().x-0.000312381,2)+pow(pos().y-0.000227718,2)+pow(pos().z-3.85309e-05,2),0.5)<=9e-06||pow(pow(pos().x-0.000329916,2)+pow(pos().y-0.000255199,2)+pow(pos().z-3.18542e-05,2),0.5)<=1.25e-05||pow(pow(pos().x-0.000359997,2)+pow(pos().y-0.000274179,2)+pow(pos().z-1.54404e-05,2),0.5)<=9e-06||pow(pow(pos().x-0.000366002,2)+pow(pos().y-0.000258613,2)+pow(pos().z-2.89611e-05,2),0.5)<=1.25e-05||pow(pow(pos().x-0.000343156,2)+pow(pos().y-0.000268419,2)+pow(pos().z-1.27198e-05,2),0.5)<=9e-06||pow(pow(pos().x-0.000389177,2)+pow(pos().y-0.000262283,2)+pow(pos().z-1.79074e-05,2),0.5)<=1.25e-05||pow(pow(pos().x-0.000408797,2)+pow(pos().y-0.000266086,2)+pow(pos().z-9.82045e-06,2),0.5)<=9e-06||pow(pow(pos().x-0.000383712,2)+pow(pos().y-0.000244698,2)+pow(pos().z-3.97764e-05,2),0.5)<=1.25e-05";
    keepPatches true;
    }
alphawater8
    {
    field alpha.phase1;
    expression "1";
condition "pow(pow(pos().x-0.000454158,2)+pow(pos().y-0.000262387,2)+pow(pos().z-2.85209e-05,2),0.5)<=1.25e-05||pow(pow(pos().x-0.00049088,2)+pow(pos().y-0.000271447,2)+pow(pos().z-1.3871e-05,2),0.5)<=9e-06||pow(pow(pos().x-0.000473896,2)+pow(pos().y-0.00027487,2)+pow(pos().z-8.9961e-06,2),0.5)<=9e-06||pow(pow(pos().x-0.000475529,2)+pow(pos().y-0.000262033,2)+pow(pos().z-2.20059e-05,2),0.5)<=9e-06||pow(pow(pos().x-0.000539651,2)+pow(pos().y-0.000279304,2)+pow(pos().z-1.77952e-05,2),0.5)<=9e-06||pow(pow(pos().x-0.000648837,2)+pow(pos().y-0.000276262,2)+pow(pos().z-8.99668e-06,2),0.5)<=9e-06||pow(pow(pos().x-0.000677782,2)+pow(pos().y-0.000270543,2)+pow(pos().z-8.99668e-06,2),0.5)<=9e-06||pow(pow(pos().x-0.000685241,2)+pow(pos().y-0.000269129,2)+pow(pos().z-3.17748e-05,2),0.5)<=1.5e-05||pow(pow(pos().x-0.000708164,2)+pow(pos().y-0.000260471,2)+pow(pos().z-3.22474e-05,2),0.5)<=9e-06";
    keepPatches true;
    }
alphawater9
    {
    field alpha.phase1;
    expression "1";
condition "pow(pow(pos().x-0.000802335,2)+pow(pos().y-0.000264907,2)+pow(pos().z-3.2802e-05,2),0.5)<=1.25e-05||pow(pow(pos().x-0.000851465,2)+pow(pos().y-0.000260812,2)+pow(pos().z-2.62163e-05,2),0.5)<=1.25e-05||pow(pow(pos().x-0.000904247,2)+pow(pos().y-0.000266974,2)+pow(pos().z-1.44084e-05,2),0.5)<=9e-06||pow(pow(pos().x-0.000913927,2)+pow(pos().y-0.000242066,2)+pow(pos().z-3.62524e-05,2),0.5)<=1.25e-05||pow(pow(pos().x-0.000923369,2)+pow(pos().y-0.000261061,2)+pow(pos().z-2.26531e-05,2),0.5)<=1.25e-05||pow(pow(pos().x-0.000972083,2)+pow(pos().y-0.000275167,2)+pow(pos().z-3.00409e-05,2),0.5)<=9e-06||pow(pow(pos().x-0.000951821,2)+pow(pos().y-0.000267455,2)+pow(pos().z-1.59316e-05,2),0.5)<=9e-06||pow(pow(pos().x-0.000942715,2)+pow(pos().y-0.000244082,2)+pow(pos().z-2.66614e-05,2),0.5)<=1.25e-05||pow(pow(pos().x-0.000990489,2)+pow(pos().y-0.000237612,2)+pow(pos().z-2.01082e-05,2),0.5)<=9e-06";
    keepPatches true;
    }
alphawater10
    {
    field alpha.phase1;
    expression "1";
condition "pow(pow(pos().x-0.000214306,2)+pow(pos().y-0.000287472,2)+pow(pos().z-3.35166e-05,2),0.5)<=1.25e-05||pow(pow(pos().x-0.000912549,2)+pow(pos().y-0.000291002,2)+pow(pos().z-3.38973e-05,2),0.5)<=9e-06||pow(pow(pos().x-0.000937676,2)+pow(pos().y-0.000276531,2)+pow(pos().z-2.71953e-05,2),0.5)<=9e-06||pow(pow(pos().x-0.000990959,2)+pow(pos().y-0.000288618,2)+pow(pos().z-2.66666e-05,2),0.5)<=9e-06||pow(pow(pos().x-2.30139e-05,2)+pow(pos().y-1.25021e-05,2)+pow(pos().z-5.69247e-05,2),0.5)<=1.25e-05||pow(pow(pos().x-3.28026e-05,2)+pow(pos().y-3.20154e-05,2)+pow(pos().z-5.27885e-05,2),0.5)<=9e-06||pow(pow(pos().x-9.04284e-06,2)+pow(pos().y-9.00471e-06,2)+pow(pos().z-7.30525e-05,2),0.5)<=9e-06||pow(pow(pos().x-0.000105727,2)+pow(pos().y-5.49086e-05,2)+pow(pos().z-5.16496e-05,2),0.5)<=1.5e-05||pow(pow(pos().x-0.000130291,2)+pow(pos().y-9.11651e-06,2)+pow(pos().z-5.26123e-05,2),0.5)<=9e-06";
    keepPatches true;
    }
alphawater11
    {
    field alpha.phase1;
    expression "1";
condition "pow(pow(pos().x-0.000142086,2)+pow(pos().y-1.83986e-05,2)+pow(pos().z-6.31466e-05,2),0.5)<=9e-06||pow(pow(pos().x-0.000193696,2)+pow(pos().y-2.88954e-05,2)+pow(pos().z-4.59774e-05,2),0.5)<=1.25e-05||pow(pow(pos().x-0.000240444,2)+pow(pos().y-4.76874e-05,2)+pow(pos().z-5.00192e-05,2),0.5)<=1.5e-05||pow(pow(pos().x-0.000225069,2)+pow(pos().y-9.00065e-06,2)+pow(pos().z-5.62383e-05,2),0.5)<=9e-06||pow(pow(pos().x-0.000344442,2)+pow(pos().y-3.22848e-05,2)+pow(pos().z-4.75192e-05,2),0.5)<=9e-06||pow(pow(pos().x-0.000359927,2)+pow(pos().y-1.29132e-05,2)+pow(pos().z-5.01118e-05,2),0.5)<=1.25e-05||pow(pow(pos().x-0.000334863,2)+pow(pos().y-1.25807e-05,2)+pow(pos().z-5.1211e-05,2),0.5)<=1.25e-05||pow(pow(pos().x-0.000427307,2)+pow(pos().y-3.37248e-05,2)+pow(pos().z-4.44028e-05,2),0.5)<=9e-06||pow(pow(pos().x-0.00049683,2)+pow(pos().y-2.93173e-05,2)+pow(pos().z-6.44544e-05,2),0.5)<=9e-06";
    keepPatches true;
    }
alphawater12
    {
    field alpha.phase1;
    expression "1";
condition "pow(pow(pos().x-0.000527251,2)+pow(pos().y-4.06358e-05,2)+pow(pos().z-5.92034e-05,2),0.5)<=1.5e-05||pow(pow(pos().x-0.000549672,2)+pow(pos().y-5.71382e-05,2)+pow(pos().z-8.4677e-05,2),0.5)<=1.5e-05||pow(pow(pos().x-0.000547634,2)+pow(pos().y-9.69401e-06,2)+pow(pos().z-6.1987e-05,2),0.5)<=9e-06||pow(pow(pos().x-0.000573865,2)+pow(pos().y-2.31066e-05,2)+pow(pos().z-6.25758e-05,2),0.5)<=1.5e-05||pow(pow(pos().x-0.000559639,2)+pow(pos().y-8.88126e-06,2)+pow(pos().z-7.5417e-05,2),0.5)<=9e-06||pow(pow(pos().x-0.000647091,2)+pow(pos().y-9.02626e-06,2)+pow(pos().z-6.01978e-05,2),0.5)<=9e-06||pow(pow(pos().x-0.000667888,2)+pow(pos().y-5.64655e-05,2)+pow(pos().z-1.74336e-05,2),0.5)<=9e-06||pow(pow(pos().x-0.000688278,2)+pow(pos().y-1.52226e-05,2)+pow(pos().z-5.15965e-05,2),0.5)<=1.25e-05||pow(pow(pos().x-0.00069527,2)+pow(pos().y-3.96605e-05,2)+pow(pos().z-4.5852e-05,2),0.5)<=1.25e-05";
    keepPatches true;
    }
alphawater13
    {
    field alpha.phase1;
    expression "1";
condition "pow(pow(pos().x-0.000726845,2)+pow(pos().y-9.04949e-06,2)+pow(pos().z-5.08379e-05,2),0.5)<=9e-06||pow(pow(pos().x-0.000708854,2)+pow(pos().y-8.99893e-06,2)+pow(pos().z-5.13515e-05,2),0.5)<=9e-06||pow(pow(pos().x-0.000761464,2)+pow(pos().y-3.18362e-05,2)+pow(pos().z-5.26025e-05,2),0.5)<=9e-06||pow(pow(pos().x-0.000821972,2)+pow(pos().y-1.27676e-05,2)+pow(pos().z-5.53223e-05,2),0.5)<=1.25e-05||pow(pow(pos().x-0.000794938,2)+pow(pos().y-5.68971e-05,2)+pow(pos().z-7.0237e-05,2),0.5)<=1.25e-05||pow(pow(pos().x-0.000891156,2)+pow(pos().y-1.71895e-05,2)+pow(pos().z-4.55697e-05,2),0.5)<=1.5e-05||pow(pow(pos().x-0.000911418,2)+pow(pos().y-2.51967e-05,2)+pow(pos().z-7.03885e-05,2),0.5)<=1.8e-05||pow(pow(pos().x-2.59169e-05,2)+pow(pos().y-7.15794e-05,2)+pow(pos().z-5.73938e-05,2),0.5)<=1.25e-05||pow(pow(pos().x-6.03548e-05,2)+pow(pos().y-6.83235e-05,2)+pow(pos().z-5.38686e-05,2),0.5)<=1.25e-05";
    keepPatches true;
    }
alphawater14
    {
    field alpha.phase1;
    expression "1";
condition "pow(pow(pos().x-0.000268385,2)+pow(pos().y-6.25765e-05,2)+pow(pos().z-3.80563e-05,2),0.5)<=1.25e-05||pow(pow(pos().x-0.000345905,2)+pow(pos().y-7.11356e-05,2)+pow(pos().z-3.35857e-05,2),0.5)<=1.25e-05||pow(pow(pos().x-0.000381697,2)+pow(pos().y-7.4871e-05,2)+pow(pos().z-4.91996e-05,2),0.5)<=1.8e-05||pow(pow(pos().x-0.000458728,2)+pow(pos().y-6.67587e-05,2)+pow(pos().z-5.37479e-05,2),0.5)<=1.5e-05||pow(pow(pos().x-0.000617707,2)+pow(pos().y-6.65938e-05,2)+pow(pos().z-3.87597e-05,2),0.5)<=1.25e-05||pow(pow(pos().x-0.000690792,2)+pow(pos().y-9.86727e-05,2)+pow(pos().z-5.2949e-05,2),0.5)<=1.25e-05||pow(pow(pos().x-0.000807241,2)+pow(pos().y-6.42667e-05,2)+pow(pos().z-4.77859e-05,2),0.5)<=1.25e-05||pow(pow(pos().x-0.000793611,2)+pow(pos().y-0.000107441,2)+pow(pos().z-5.137e-05,2),0.5)<=9e-06||pow(pow(pos().x-0.000850737,2)+pow(pos().y-6.32813e-05,2)+pow(pos().z-4.55654e-05,2),0.5)<=1.25e-05";
    keepPatches true;
    }
alphawater15
    {
    field alpha.phase1;
    expression "1";
condition "pow(pow(pos().x-0.000849022,2)+pow(pos().y-8.46427e-05,2)+pow(pos().z-4.85812e-05,2),0.5)<=9e-06||pow(pow(pos().x-0.000877255,2)+pow(pos().y-7.85628e-05,2)+pow(pos().z-5.19615e-05,2),0.5)<=1.8e-05||pow(pow(pos().x-0.000908192,2)+pow(pos().y-8.22651e-05,2)+pow(pos().z-4.4565e-05,2),0.5)<=9e-06||pow(pow(pos().x-0.000928222,2)+pow(pos().y-8.37093e-05,2)+pow(pos().z-4.27576e-05,2),0.5)<=9e-06||pow(pow(pos().x-0.000920398,2)+pow(pos().y-9.60677e-06,2)+pow(pos().z-4.42382e-05,2),0.5)<=9e-06||pow(pow(pos().x-0.00096022,2)+pow(pos().y-8.80911e-05,2)+pow(pos().z-4.55425e-05,2),0.5)<=1.5e-05||pow(pow(pos().x-0.000113221,2)+pow(pos().y-0.000142359,2)+pow(pos().z-3.67699e-05,2),0.5)<=1.5e-05||pow(pow(pos().x-0.000178327,2)+pow(pos().y-0.000156431,2)+pow(pos().z-2.93711e-05,2),0.5)<=9e-06||pow(pow(pos().x-0.000198919,2)+pow(pos().y-8.13115e-05,2)+pow(pos().z-4.06655e-05,2),0.5)<=1.25e-05";
    keepPatches true;
    }
alphawater16
    {
    field alpha.phase1;
    expression "1";
condition "pow(pow(pos().x-0.000234517,2)+pow(pos().y-0.000102952,2)+pow(pos().z-5.17722e-05,2),0.5)<=1.5e-05||pow(pow(pos().x-0.000294262,2)+pow(pos().y-0.000118421,2)+pow(pos().z-4.72054e-05,2),0.5)<=9e-06||pow(pow(pos().x-0.000251216,2)+pow(pos().y-0.000140156,2)+pow(pos().z-3.4161e-05,2),0.5)<=1.25e-05||pow(pow(pos().x-0.000399105,2)+pow(pos().y-0.000136952,2)+pow(pos().z-2.65036e-05,2),0.5)<=9e-06||pow(pow(pos().x-0.000577731,2)+pow(pos().y-0.000128448,2)+pow(pos().z-5.08749e-05,2),0.5)<=1.25e-05||pow(pow(pos().x-0.000596453,2)+pow(pos().y-0.000141549,2)+pow(pos().z-4.15336e-05,2),0.5)<=9e-06||pow(pow(pos().x-0.000695132,2)+pow(pos().y-0.000126344,2)+pow(pos().z-4.77583e-05,2),0.5)<=1.5e-05||pow(pow(pos().x-0.000757134,2)+pow(pos().y-5.87484e-05,2)+pow(pos().z-6.1613e-05,2),0.5)<=9e-06||pow(pow(pos().x-0.000953813,2)+pow(pos().y-0.000131069,2)+pow(pos().z-4.3804e-05,2),0.5)<=1.25e-05";
    keepPatches true;
    }
alphawater17
    {
    field alpha.phase1;
    expression "1";
condition "pow(pow(pos().x-0.00097499,2)+pow(pos().y-0.000116818,2)+pow(pos().z-4.59724e-05,2),0.5)<=1.25e-05||pow(pow(pos().x-0.000146087,2)+pow(pos().y-0.000175938,2)+pow(pos().z-5.94878e-05,2),0.5)<=9e-06||pow(pow(pos().x-0.00028862,2)+pow(pos().y-0.000135109,2)+pow(pos().z-5.10537e-05,2),0.5)<=9e-06||pow(pow(pos().x-0.000288103,2)+pow(pos().y-0.00019463,2)+pow(pos().z-1.88193e-05,2),0.5)<=9e-06||pow(pow(pos().x-0.000713083,2)+pow(pos().y-0.000149194,2)+pow(pos().z-4.42141e-05,2),0.5)<=1.25e-05||pow(pow(pos().x-0.00070777,2)+pow(pos().y-0.000173382,2)+pow(pos().z-4.14155e-05,2),0.5)<=9e-06||pow(pow(pos().x-0.000806886,2)+pow(pos().y-0.000149082,2)+pow(pos().z-3.70209e-05,2),0.5)<=9e-06||pow(pow(pos().x-0.000844343,2)+pow(pos().y-0.000151234,2)+pow(pos().z-4.28453e-05,2),0.5)<=1.25e-05||pow(pow(pos().x-0.00081923,2)+pow(pos().y-0.000190628,2)+pow(pos().z-3.81564e-05,2),0.5)<=1.8e-05";
    keepPatches true;
    }
alphawater18
    {
    field alpha.phase1;
    expression "1";
condition "pow(pow(pos().x-0.000931435,2)+pow(pos().y-0.000142681,2)+pow(pos().z-4.64132e-05,2),0.5)<=1.25e-05||pow(pow(pos().x-1.08097e-05,2)+pow(pos().y-0.000242078,2)+pow(pos().z-5.12145e-05,2),0.5)<=9e-06||pow(pow(pos().x-0.000128853,2)+pow(pos().y-0.000211243,2)+pow(pos().z-3.89222e-05,2),0.5)<=1.25e-05||pow(pow(pos().x-0.000213759,2)+pow(pos().y-0.0002113,2)+pow(pos().z-4.71821e-05,2),0.5)<=1.8e-05||pow(pow(pos().x-0.000323504,2)+pow(pos().y-0.000134309,2)+pow(pos().z-8.21473e-05,2),0.5)<=9e-06||pow(pow(pos().x-0.000381107,2)+pow(pos().y-0.000188523,2)+pow(pos().z-3.8907e-05,2),0.5)<=1.5e-05||pow(pow(pos().x-0.000437457,2)+pow(pos().y-0.000242785,2)+pow(pos().z-3.79784e-05,2),0.5)<=9e-06||pow(pow(pos().x-0.000518195,2)+pow(pos().y-0.000196235,2)+pow(pos().z-4.57445e-05,2),0.5)<=1.5e-05||pow(pow(pos().x-0.000606746,2)+pow(pos().y-0.000184893,2)+pow(pos().z-3.46001e-05,2),0.5)<=9e-06";
    keepPatches true;
    }
alphawater19
    {
    field alpha.phase1;
    expression "1";
condition "pow(pow(pos().x-0.00073099,2)+pow(pos().y-0.000162012,2)+pow(pos().z-8.14286e-05,2),0.5)<=9e-06||pow(pow(pos().x-0.000621023,2)+pow(pos().y-0.000200899,2)+pow(pos().z-4.14272e-05,2),0.5)<=1.25e-05||pow(pow(pos().x-0.000760615,2)+pow(pos().y-0.000180698,2)+pow(pos().z-1.10766e-05,2),0.5)<=9e-06||pow(pow(pos().x-0.000705751,2)+pow(pos().y-0.000185462,2)+pow(pos().z-2.67964e-05,2),0.5)<=9e-06||pow(pow(pos().x-0.000777196,2)+pow(pos().y-0.000246242,2)+pow(pos().z-4.50087e-05,2),0.5)<=9e-06||pow(pow(pos().x-0.00086107,2)+pow(pos().y-0.000139012,2)+pow(pos().z-8.84288e-05,2),0.5)<=9e-06||pow(pow(pos().x-0.000864454,2)+pow(pos().y-0.000239225,2)+pow(pos().z-4.42986e-05,2),0.5)<=1.5e-05||pow(pow(pos().x-0.000842487,2)+pow(pos().y-0.000183969,2)+pow(pos().z-2.41548e-05,2),0.5)<=9e-06||pow(pow(pos().x-0.000933848,2)+pow(pos().y-0.000173859,2)+pow(pos().z-2.34667e-05,2),0.5)<=9e-06";
    keepPatches true;
    }
alphawater20
    {
    field alpha.phase1;
    expression "1";
condition "pow(pow(pos().x-0.000970428,2)+pow(pos().y-0.000205891,2)+pow(pos().z-3.92957e-05,2),0.5)<=1.5e-05||pow(pow(pos().x-4.3783e-05,2)+pow(pos().y-0.000238283,2)+pow(pos().z-4.18898e-05,2),0.5)<=9e-06||pow(pow(pos().x-0.000187098,2)+pow(pos().y-0.000262866,2)+pow(pos().z-1.93109e-05,2),0.5)<=1.25e-05||pow(pow(pos().x-0.000222594,2)+pow(pos().y-0.000251153,2)+pow(pos().z-3.9649e-05,2),0.5)<=1.5e-05||pow(pow(pos().x-0.000336924,2)+pow(pos().y-0.000234243,2)+pow(pos().z-3.81984e-05,2),0.5)<=9e-06||pow(pow(pos().x-0.000346423,2)+pow(pos().y-0.000269429,2)+pow(pos().z-3.21514e-05,2),0.5)<=9e-06||pow(pow(pos().x-0.000343467,2)+pow(pos().y-0.000201012,2)+pow(pos().z-3.34001e-05,2),0.5)<=9e-06||pow(pow(pos().x-0.000358936,2)+pow(pos().y-0.000197238,2)+pow(pos().z-4.20936e-05,2),0.5)<=9e-06||pow(pow(pos().x-0.000349386,2)+pow(pos().y-0.000248587,2)+pow(pos().z-4.31253e-05,2),0.5)<=9e-06";
    keepPatches true;
    }
alphawater21
    {
    field alpha.phase1;
    expression "1";
condition "pow(pow(pos().x-0.000475652,2)+pow(pos().y-0.000213688,2)+pow(pos().z-5.46363e-05,2),0.5)<=1.25e-05||pow(pow(pos().x-0.000477912,2)+pow(pos().y-0.000249527,2)+pow(pos().z-4.25998e-05,2),0.5)<=1.25e-05||pow(pow(pos().x-0.000414222,2)+pow(pos().y-0.00025499,2)+pow(pos().z-3.61386e-05,2),0.5)<=1.5e-05||pow(pow(pos().x-0.000496853,2)+pow(pos().y-0.000227088,2)+pow(pos().z-5.21675e-05,2),0.5)<=1.25e-05||pow(pow(pos().x-0.000539653,2)+pow(pos().y-0.000253257,2)+pow(pos().z-5.38257e-05,2),0.5)<=1.8e-05||pow(pow(pos().x-0.00054394,2)+pow(pos().y-0.000268984,2)+pow(pos().z-3.20608e-05,2),0.5)<=9e-06||pow(pow(pos().x-0.000567334,2)+pow(pos().y-0.000252161,2)+pow(pos().z-4.26014e-05,2),0.5)<=9e-06||pow(pow(pos().x-0.000522195,2)+pow(pos().y-0.000268581,2)+pow(pos().z-2.94795e-05,2),0.5)<=9e-06||pow(pow(pos().x-0.000558827,2)+pow(pos().y-0.000227407,2)+pow(pos().z-5.06319e-05,2),0.5)<=1.25e-05";
    keepPatches true;
    }
alphawater22
    {
    field alpha.phase1;
    expression "1";
condition "pow(pow(pos().x-0.00059123,2)+pow(pos().y-0.000268226,2)+pow(pos().z-3.68538e-05,2),0.5)<=1.25e-05||pow(pow(pos().x-0.00062019,2)+pow(pos().y-0.000266256,2)+pow(pos().z-4.13647e-05,2),0.5)<=1.25e-05||pow(pow(pos().x-0.00069693,2)+pow(pos().y-0.000246668,2)+pow(pos().z-5.09684e-05,2),0.5)<=1.25e-05||pow(pow(pos().x-0.000620319,2)+pow(pos().y-0.000221745,2)+pow(pos().z-4.69354e-05,2),0.5)<=9e-06||pow(pow(pos().x-0.000717569,2)+pow(pos().y-0.00021208,2)+pow(pos().z-4.64438e-05,2),0.5)<=9e-06||pow(pow(pos().x-0.000840431,2)+pow(pos().y-0.000206813,2)+pow(pos().z-4.36597e-05,2),0.5)<=9e-06||pow(pow(pos().x-0.000810015,2)+pow(pos().y-0.000192554,2)+pow(pos().z-7.58073e-05,2),0.5)<=1.25e-05||pow(pow(pos().x-0.000873621,2)+pow(pos().y-0.000198583,2)+pow(pos().z-7.84788e-05,2),0.5)<=1.5e-05||pow(pow(pos().x-0.000931513,2)+pow(pos().y-0.000169609,2)+pow(pos().z-5.89745e-05,2),0.5)<=1.25e-05";
    keepPatches true;
    }
alphawater23
    {
    field alpha.phase1;
    expression "1";
condition "pow(pow(pos().x-0.000888509,2)+pow(pos().y-0.000206167,2)+pow(pos().z-4.84508e-05,2),0.5)<=1.8e-05||pow(pow(pos().x-0.000976551,2)+pow(pos().y-0.000254425,2)+pow(pos().z-3.48892e-05,2),0.5)<=9e-06||pow(pow(pos().x-1.51904e-05,2)+pow(pos().y-0.000285005,2)+pow(pos().z-6.48769e-05,2),0.5)<=1.5e-05||pow(pow(pos().x-0.000162141,2)+pow(pos().y-0.000290575,2)+pow(pos().z-5.10193e-05,2),0.5)<=9e-06||pow(pow(pos().x-0.000188344,2)+pow(pos().y-0.000283553,2)+pow(pos().z-3.33828e-05,2),0.5)<=1.25e-05||pow(pow(pos().x-0.00028804,2)+pow(pos().y-0.000280892,2)+pow(pos().z-4.53175e-05,2),0.5)<=1.25e-05||pow(pow(pos().x-0.000265944,2)+pow(pos().y-0.000281086,2)+pow(pos().z-4.1175e-05,2),0.5)<=9e-06||pow(pow(pos().x-0.000303252,2)+pow(pos().y-0.000261914,2)+pow(pos().z-3.20625e-05,2),0.5)<=1.5e-05||pow(pow(pos().x-0.000308741,2)+pow(pos().y-0.000290585,2)+pow(pos().z-4.39618e-05,2),0.5)<=9e-06";
    keepPatches true;
    }
alphawater24
    {
    field alpha.phase1;
    expression "1";
condition "pow(pow(pos().x-0.00033573,2)+pow(pos().y-0.000290998,2)+pow(pos().z-4.68365e-05,2),0.5)<=9e-06||pow(pow(pos().x-0.000353296,2)+pow(pos().y-0.000289683,2)+pow(pos().z-5.02797e-05,2),0.5)<=9e-06||pow(pow(pos().x-0.000358282,2)+pow(pos().y-0.000272096,2)+pow(pos().z-7.58002e-05,2),0.5)<=9e-06||pow(pow(pos().x-0.000386863,2)+pow(pos().y-0.000291015,2)+pow(pos().z-4.33308e-05,2),0.5)<=9e-06||pow(pow(pos().x-0.000401771,2)+pow(pos().y-0.000291105,2)+pow(pos().z-5.31405e-05,2),0.5)<=9e-06||pow(pow(pos().x-0.000385791,2)+pow(pos().y-0.000291092,2)+pow(pos().z-6.21525e-05,2),0.5)<=9e-06||pow(pow(pos().x-0.000367996,2)+pow(pos().y-0.000291011,2)+pow(pos().z-6.0429e-05,2),0.5)<=9e-06||pow(pow(pos().x-0.000496405,2)+pow(pos().y-0.00028956,2)+pow(pos().z-5.33536e-05,2),0.5)<=9e-06||pow(pow(pos().x-0.00050502,2)+pow(pos().y-0.000260011,2)+pow(pos().z-4.45727e-05,2),0.5)<=1.25e-05";
    keepPatches true;
    }
alphawater25
    {
    field alpha.phase1;
    expression "1";
condition "pow(pow(pos().x-0.000522001,2)+pow(pos().y-0.000281565,2)+pow(pos().z-5.10009e-05,2),0.5)<=1.25e-05||pow(pow(pos().x-0.00060587,2)+pow(pos().y-0.000290802,2)+pow(pos().z-5.01444e-05,2),0.5)<=9e-06||pow(pow(pos().x-0.000562863,2)+pow(pos().y-0.000271342,2)+pow(pos().z-6.178e-05,2),0.5)<=1.25e-05||pow(pow(pos().x-0.00070974,2)+pow(pos().y-0.000288434,2)+pow(pos().z-4.39671e-05,2),0.5)<=9e-06||pow(pow(pos().x-0.00076337,2)+pow(pos().y-0.000284002,2)+pow(pos().z-4.31551e-05,2),0.5)<=9e-06||pow(pow(pos().x-0.000775196,2)+pow(pos().y-0.000274279,2)+pow(pos().z-5.82062e-05,2),0.5)<=1.25e-05||pow(pow(pos().x-0.000737823,2)+pow(pos().y-0.000283368,2)+pow(pos().z-5.54443e-05,2),0.5)<=1.25e-05||pow(pow(pos().x-0.000816518,2)+pow(pos().y-0.000243386,2)+pow(pos().z-4.8436e-05,2),0.5)<=1.25e-05||pow(pow(pos().x-0.000885539,2)+pow(pos().y-0.000290959,2)+pow(pos().z-6.45609e-05,2),0.5)<=9e-06";
    keepPatches true;
    }
alphawater26
    {
    field alpha.phase1;
    expression "1";
condition "pow(pow(pos().x-0.000976628,2)+pow(pos().y-0.000290919,2)+pow(pos().z-3.76772e-05,2),0.5)<=9e-06||pow(pow(pos().x-0.000925043,2)+pow(pos().y-0.000291002,2)+pow(pos().z-4.89487e-05,2),0.5)<=9e-06||pow(pow(pos().x-0.000991004,2)+pow(pos().y-0.000273383,2)+pow(pos().z-3.60755e-05,2),0.5)<=9e-06||pow(pow(pos().x-8.94069e-05,2)+pow(pos().y-5.48025e-05,2)+pow(pos().z-7.4936e-05,2),0.5)<=1.25e-05||pow(pow(pos().x-0.000204494,2)+pow(pos().y-1.25007e-05,2)+pow(pos().z-6.1493e-05,2),0.5)<=1.25e-05||pow(pow(pos().x-0.000299718,2)+pow(pos().y-5.0502e-05,2)+pow(pos().z-5.63372e-05,2),0.5)<=9e-06||pow(pow(pos().x-0.000349001,2)+pow(pos().y-9.34448e-06,2)+pow(pos().z-7.22197e-05,2),0.5)<=9e-06||pow(pow(pos().x-0.000393051,2)+pow(pos().y-3.70209e-05,2)+pow(pos().z-7.5543e-05,2),0.5)<=1.25e-05||pow(pow(pos().x-0.000393856,2)+pow(pos().y-5.20345e-05,2)+pow(pos().z-4.14745e-05,2),0.5)<=9e-06";
    keepPatches true;
    }
alphawater27
    {
    field alpha.phase1;
    expression "1";
condition "pow(pow(pos().x-0.000514512,2)+pow(pos().y-1.69948e-05,2)+pow(pos().z-6.55899e-05,2),0.5)<=1.25e-05||pow(pow(pos().x-0.000530777,2)+pow(pos().y-9.56617e-06,2)+pow(pos().z-8.06747e-05,2),0.5)<=9e-06||pow(pow(pos().x-0.000598399,2)+pow(pos().y-1.19816e-05,2)+pow(pos().z-5.9729e-05,2),0.5)<=9e-06||pow(pow(pos().x-0.000576685,2)+pow(pos().y-8.66575e-05,2)+pow(pos().z-5.02365e-05,2),0.5)<=9e-06||pow(pow(pos().x-0.000574193,2)+pow(pos().y-5.39928e-05,2)+pow(pos().z-5.95336e-05,2),0.5)<=9e-06||pow(pow(pos().x-0.000667805,2)+pow(pos().y-9.00093e-06,2)+pow(pos().z-4.94817e-05,2),0.5)<=9e-06||pow(pow(pos().x-0.000608042,2)+pow(pos().y-5.0151e-05,2)+pow(pos().z-5.49307e-05,2),0.5)<=1.25e-05||pow(pow(pos().x-0.000730478,2)+pow(pos().y-3.57248e-05,2)+pow(pos().z-3.32403e-05,2),0.5)<=9e-06||pow(pow(pos().x-0.000791186,2)+pow(pos().y-9.21228e-06,2)+pow(pos().z-5.43498e-05,2),0.5)<=9e-06";
    keepPatches true;
    }
alphawater28
    {
    field alpha.phase1;
    expression "1";
condition "pow(pow(pos().x-0.000990915,2)+pow(pos().y-3.92539e-05,2)+pow(pos().z-5.06841e-05,2),0.5)<=9e-06||pow(pow(pos().x-0.000138921,2)+pow(pos().y-7.71982e-05,2)+pow(pos().z-3.79627e-05,2),0.5)<=9e-06||pow(pow(pos().x-0.000180588,2)+pow(pos().y-6.25524e-05,2)+pow(pos().z-3.02696e-05,2),0.5)<=1.5e-05||pow(pow(pos().x-0.000240972,2)+pow(pos().y-6.97945e-05,2)+pow(pos().z-2.87569e-05,2),0.5)<=1.25e-05||pow(pow(pos().x-0.000417871,2)+pow(pos().y-5.67342e-05,2)+pow(pos().z-3.39842e-05,2),0.5)<=9e-06||pow(pow(pos().x-0.000429245,2)+pow(pos().y-9.31619e-05,2)+pow(pos().z-5.42717e-05,2),0.5)<=9e-06||pow(pow(pos().x-0.000514535,2)+pow(pos().y-7.78894e-05,2)+pow(pos().z-5.53754e-05,2),0.5)<=1.25e-05||pow(pow(pos().x-0.000523268,2)+pow(pos().y-6.37997e-05,2)+pow(pos().z-3.73627e-05,2),0.5)<=9e-06||pow(pow(pos().x-0.000730349,2)+pow(pos().y-8.5658e-05,2)+pow(pos().z-4.99864e-05,2),0.5)<=1.25e-05";
    keepPatches true;
    }
alphawater29
    {
    field alpha.phase1;
    expression "1";
condition "pow(pow(pos().x-0.00066445,2)+pow(pos().y-4.22341e-05,2)+pow(pos().z-5.42014e-05,2),0.5)<=1.95e-05||pow(pow(pos().x-0.000833362,2)+pow(pos().y-0.000113305,2)+pow(pos().z-5.40381e-05,2),0.5)<=1.25e-05||pow(pow(pos().x-0.000939904,2)+pow(pos().y-6.68333e-05,2)+pow(pos().z-5.07004e-05,2),0.5)<=1.25e-05||pow(pow(pos().x-0.000190022,2)+pow(pos().y-0.000142075,2)+pow(pos().z-2.51692e-05,2),0.5)<=9e-06||pow(pow(pos().x-0.000212449,2)+pow(pos().y-0.000104237,2)+pow(pos().z-4.21141e-05,2),0.5)<=9e-06||pow(pow(pos().x-0.000221584,2)+pow(pos().y-0.00014386,2)+pow(pos().z-6.1699e-05,2),0.5)<=9e-06||pow(pow(pos().x-0.00032143,2)+pow(pos().y-7.85337e-05,2)+pow(pos().z-4.10775e-05,2),0.5)<=1.25e-05||pow(pow(pos().x-0.0003001,2)+pow(pos().y-6.09853e-05,2)+pow(pos().z-2.0033e-05,2),0.5)<=9e-06||pow(pow(pos().x-0.000497891,2)+pow(pos().y-6.68145e-05,2)+pow(pos().z-3.66403e-05,2),0.5)<=1.5e-05";
    keepPatches true;
    }
alphawater30
    {
    field alpha.phase1;
    expression "1";